
     RDKit          3D

 23 24  0  0  0  0  0  0  0  0999 V2000
    8.3608    7.4673   29.3468 C   0  0  0  0  0  0  0  0  0  0  0  0
    7.5449    8.5352   28.9360 C   0  0  0  0  0  0  0  0  0  0  0  0
    6.1572    8.4659   29.0789 C   0  0  0  0  0  0  0  0  0  0  0  0
    5.5576    7.3319   29.6429 C   0  0  0  0  0  0  0  0  0  0  0  0
    6.3632    6.2431   30.0343 C   0  0  0  0  0  0  0  0  0  0  0  0
    7.7575    6.3149   29.8825 C   0  0  0  0  0  0  0  0  0  0  0  0
    5.7120    5.0457   30.6038 C   0  0  0  0  0  0  0  0  0  0  0  0
    6.3639    3.9868   30.8098 O   0  0  0  0  0  0  0  0  0  0  0  0
    4.3144    5.0922   30.9047 N   0  0  0  0  0  0  0  0  0  0  0  0
    3.6101    6.3722   30.9138 C   0  0  0  0  0  0  0  0  0  0  0  0
    4.0504    7.2354   29.7246 C   0  0  0  0  0  0  0  0  0  0  0  0
    7.9815    9.4286   28.5069 H   0  0  0  0  0  0  0  0  0  0  0  0
    5.5489    9.2976   28.7455 H   0  0  0  0  0  0  0  0  0  0  0  0
    8.3691    5.4692   30.1711 H   0  0  0  0  0  0  0  0  0  0  0  0
    3.8062    4.2179   31.1672 H   0  0  0  0  0  0  0  0  0  0  0  0
    3.8421    6.9059   31.8609 H   0  0  0  0  0  0  0  0  0  0  0  0
    2.5135    6.1989   30.8691 H   0  0  0  0  0  0  0  0  0  0  0  0
    3.6012    8.2469   29.8319 H   0  0  0  0  0  0  0  0  0  0  0  0
    3.6704    6.7846   28.7826 H   0  0  0  0  0  0  0  0  0  0  0  0
    9.8461    7.5258   29.1490 C   0  0  0  0  0  0  0  0  0  0  0  0
   10.0940    8.0582   28.2061 H   0  0  0  0  0  0  0  0  0  0  0  0
   10.3110    8.0631   30.0017 H   0  0  0  0  0  0  0  0  0  0  0  0
   10.2737    6.5023   29.0887 H   0  0  0  0  0  0  0  0  0  0  0  0
  1  2  2  0
  2  3  1  0
  3  4  2  0
  4  5  1  0
  5  6  2  0
  5  7  1  0
  7  8  2  0
  7  9  1  0
  9 10  1  0
 10 11  1  0
  6  1  1  0
 11  4  1  0
  2 12  1  0
  3 13  1  0
  6 14  1  0
  9 15  1  0
 10 16  1  0
 10 17  1  0
 11 18  1  0
 11 19  1  0
 20 21  1  0
 20 22  1  0
 20 23  1  0
  1 20  1  0
M  END
$$$$

