
     RDKit          3D

 46 49  0  0  0  0  0  0  0  0999 V2000
   12.0450    8.0460   26.4020 C   0  0  0  0  0  0  0  0  0  0  0  0
   11.7260    7.6420   27.6280 N   0  0  0  0  0  0  0  0  0  0  0  0
   11.2930    7.9360   25.4350 O   0  0  0  0  0  0  0  0  0  0  0  0
   10.4720    6.9670   27.9340 C   0  0  1  0  0  0  0  0  0  0  0  0
   10.7260    5.4840   28.2060 C   0  0  0  0  0  0  0  0  0  0  0  0
    9.8340    7.5500   29.1800 C   0  0  0  0  0  0  0  0  0  0  0  0
   11.2910    4.5240   26.8100 S   0  0  0  0  0  0  0  0  0  0  0  0
    9.7290    3.8040   26.2620 C   0  0  0  0  0  0  0  0  0  0  0  0
    8.9300    3.1710   27.3700 C   0  0  0  0  0  0  0  0  0  0  0  0
    7.6400    3.6140   27.6500 C   0  0  0  0  0  0  0  0  0  0  0  0
    9.4640    2.1350   28.1330 C   0  0  0  0  0  0  0  0  0  0  0  0
    6.8930    3.0370   28.6730 C   0  0  0  0  0  0  0  0  0  0  0  0
    8.7230    1.5500   29.1610 C   0  0  0  0  0  0  0  0  0  0  0  0
    7.4370    2.0010   29.4300 C   0  0  0  0  0  0  0  0  0  0  0  0
    8.5120    7.4680   29.2290 N   0  0  0  0  0  0  0  0  0  0  0  0
   10.5220    8.0230   30.0840 O   0  0  0  0  0  0  0  0  0  0  0  0
    7.7400    7.9330   30.3660 C   0  0  2  0  0  0  0  0  0  0  0  0
    6.5550    7.0620   30.6330 C   0  0  0  0  0  0  0  0  0  0  0  0
    6.6830    5.9410   31.4410 C   0  0  0  0  0  0  0  0  0  0  0  0
    5.3300    7.3150   30.0270 C   0  0  0  0  0  0  0  0  0  0  0  0
    4.2500    6.4590   30.2200 C   0  0  0  0  0  0  0  0  0  0  0  0
    4.3920    5.3390   31.0270 C   0  0  0  0  0  0  0  0  0  0  0  0
    5.6110    5.0810   31.6400 C   0  0  0  0  0  0  0  0  0  0  0  0
    7.4520    9.4330   30.3540 C   0  0  0  0  0  0  0  0  0  0  0  0
    7.1160    9.9570   31.4330 O   0  0  0  0  0  0  0  0  0  0  0  0
    7.5690   10.0680   29.2840 O   0  0  0  0  0  0  0  0  0  0  0  0
   13.3503    8.7127   26.1753 C   0  0  0  0  0  0  0  0  0  0  0  0
   14.2239    8.7940   27.2219 N   0  0  0  0  0  0  0  0  0  0  0  0
   15.4554    9.3634   27.0925 C   0  0  0  0  0  0  0  0  0  0  0  0
   15.8540    9.8659   25.8940 N   0  0  0  0  0  0  0  0  0  0  0  0
   15.0135    9.8013   24.8326 C   0  0  0  0  0  0  0  0  0  0  0  0
   13.7585    9.2559   24.9369 C   0  0  0  0  0  0  0  0  0  0  0  0
   13.0108    9.3997   23.6460 C   0  0  0  0  0  0  0  0  0  0  0  0
   11.9069   10.4587   23.7688 C   0  0  0  0  0  0  0  0  0  0  0  0
   14.0988    9.8521   22.6398 C   0  0  0  0  0  0  0  0  0  0  0  0
   15.3079   10.3219   23.4755 C   0  0  0  0  0  0  0  0  0  0  0  0
   16.5242    9.8240   22.9748 O   0  0  0  0  0  0  0  0  0  0  0  0
   16.1195    9.4106   27.9444 H   0  0  0  0  0  0  0  0  0  0  0  0
   12.5821    8.4290   23.3177 H   0  0  0  0  0  0  0  0  0  0  0  0
   11.3691   10.5555   22.8020 H   0  0  0  0  0  0  0  0  0  0  0  0
   11.1704   10.1734   24.5456 H   0  0  0  0  0  0  0  0  0  0  0  0
   12.3387   11.4464   24.0404 H   0  0  0  0  0  0  0  0  0  0  0  0
   13.7484   10.6647   21.9657 H   0  0  0  0  0  0  0  0  0  0  0  0
   14.3821    8.9856   22.0019 H   0  0  0  0  0  0  0  0  0  0  0  0
   15.3451   11.4320   23.5092 H   0  0  0  0  0  0  0  0  0  0  0  0
   16.4942    8.8321   23.0273 H   0  0  0  0  0  0  0  0  0  0  0  0
  1  2  1  0
  3  1  2  0
  2  4  1  0
  4  5  1  1
  4  6  1  0
  7  5  1  0
  8  7  1  0
  8  9  1  0
  9 10  2  0
  9 11  1  0
 10 12  1  0
 11 13  2  0
 12 14  2  0
 13 14  1  0
  6 15  1  0
  6 16  2  0
 17 15  1  6
 17 18  1  0
 18 19  2  0
 20 21  2  0
 20 18  1  0
 21 22  1  0
 22 23  2  0
 19 23  1  0
 24 17  1  0
 24 25  1  0
 26 24  2  0
 27 28  2  0
 28 29  1  0
 29 30  2  0
 30 31  1  0
 31 32  2  0
 32 33  1  0
 33 34  1  0
 33 35  1  0
 35 36  1  0
 36 37  1  0
 32 27  1  0
 36 31  1  0
 29 38  1  0
 33 39  1  0
 34 40  1  0
 34 41  1  0
 34 42  1  0
 35 43  1  0
 35 44  1  0
 36 45  1  0
 37 46  1  0
  1 27  1  0
M  END
$$$$

