
     RDKit          3D

 35 37  0  0  0  0  0  0  0  0999 V2000
   12.8682    8.3331   25.7942 C   0  0  0  0  0  0  0  0  0  0  0  0
   13.7533    8.0962   26.8061 N   0  0  0  0  0  0  0  0  0  0  0  0
   15.0752    8.4104   26.6941 C   0  0  0  0  0  0  0  0  0  0  0  0
   15.5504    8.9735   25.5509 N   0  0  0  0  0  0  0  0  0  0  0  0
   14.6984    9.2206   24.5256 C   0  0  0  0  0  0  0  0  0  0  0  0
   13.3605    8.9333   24.6173 C   0  0  0  0  0  0  0  0  0  0  0  0
   12.6295    9.4224   23.4084 C   0  0  0  0  0  0  0  0  0  0  0  0
   13.7671    9.7797   22.4208 C   0  0  0  0  0  0  0  0  0  0  0  0
   15.0667    9.8678   23.2476 C   0  0  0  0  0  0  0  0  0  0  0  0
   15.7482    8.2097   27.5161 H   0  0  0  0  0  0  0  0  0  0  0  0
   11.9892    8.6269   22.9717 H   0  0  0  0  0  0  0  0  0  0  0  0
   13.8536    8.9681   21.6641 H   0  0  0  0  0  0  0  0  0  0  0  0
   13.5804   10.7325   21.8779 H   0  0  0  0  0  0  0  0  0  0  0  0
   15.3506   10.9279   23.4386 H   0  0  0  0  0  0  0  0  0  0  0  0
   11.4413    8.0120   25.9859 C   0  0  0  0  0  0  0  0  0  0  0  0
   10.8257    8.2805   27.2193 C   0  0  0  0  0  0  0  0  0  0  0  0
    9.4768    7.9690   27.4166 C   0  0  0  0  0  0  0  0  0  0  0  0
    8.7377    7.3751   26.3901 C   0  0  0  0  0  0  0  0  0  0  0  0
    9.3487    7.0844   25.1674 C   0  0  0  0  0  0  0  0  0  0  0  0
   10.6972    7.3951   24.9659 C   0  0  0  0  0  0  0  0  0  0  0  0
   11.3864    8.7419   28.0232 H   0  0  0  0  0  0  0  0  0  0  0  0
    9.0049    8.1870   28.3660 H   0  0  0  0  0  0  0  0  0  0  0  0
    7.6943    7.1327   26.5448 H   0  0  0  0  0  0  0  0  0  0  0  0
    8.7796    6.6099   24.3784 H   0  0  0  0  0  0  0  0  0  0  0  0
   11.1640    7.1292   24.0265 H   0  0  0  0  0  0  0  0  0  0  0  0
   11.7741   10.6494   23.7457 C   0  0  0  0  0  0  0  0  0  0  0  0
   11.4587   11.1579   22.8100 H   0  0  0  0  0  0  0  0  0  0  0  0
   10.8596   10.3446   24.2960 H   0  0  0  0  0  0  0  0  0  0  0  0
   12.3463   11.3689   24.3707 H   0  0  0  0  0  0  0  0  0  0  0  0
   16.1683    9.1401   22.5922 N   0  0  0  0  0  0  0  0  0  0  0  0
   16.3037    8.2286   23.0915 H   0  0  0  0  0  0  0  0  0  0  0  0
   17.4341    9.8716   22.6854 C   0  0  0  0  0  0  0  0  0  0  0  0
   17.3485   10.8522   22.1698 H   0  0  0  0  0  0  0  0  0  0  0  0
   18.2350    9.2887   22.1834 H   0  0  0  0  0  0  0  0  0  0  0  0
   17.7226   10.0284   23.7483 H   0  0  0  0  0  0  0  0  0  0  0  0
  1  2  2  0
  2  3  1  0
  3  4  2  0
  4  5  1  0
  5  6  2  0
  6  7  1  0
  7  8  1  0
  8  9  1  0
  6  1  1  0
  9  5  1  0
  3 10  1  0
  7 11  1  0
  8 12  1  0
  8 13  1  0
  9 14  1  0
 15 16  2  0
 16 17  1  0
 17 18  2  0
 18 19  1  0
 19 20  2  0
 20 15  1  0
 16 21  1  0
 17 22  1  0
 18 23  1  0
 19 24  1  0
 20 25  1  0
  1 15  1  0
 26 27  1  0
 26 28  1  0
 26 29  1  0
  7 26  1  0
 30 31  1  0
  9 30  1  0
 32 33  1  0
 32 34  1  0
 32 35  1  0
 30 32  1  0
M  END
$$$$

