
     RDKit          3D

 33 35  0  0  0  0  0  0  0  0999 V2000
   13.1355    8.5652   26.1327 C   0  0  0  0  0  0  0  0  0  0  0  0
   13.9979    8.5258   27.1892 N   0  0  0  0  0  0  0  0  0  0  0  0
   15.3051    8.8929   27.0616 C   0  0  0  0  0  0  0  0  0  0  0  0
   15.7845    9.3120   25.8597 N   0  0  0  0  0  0  0  0  0  0  0  0
   14.9464    9.3813   24.7953 C   0  0  0  0  0  0  0  0  0  0  0  0
   13.6248    9.0363   24.8984 C   0  0  0  0  0  0  0  0  0  0  0  0
   12.9112    9.2450   23.6038 C   0  0  0  0  0  0  0  0  0  0  0  0
   14.0470    9.5997   22.6100 C   0  0  0  0  0  0  0  0  0  0  0  0
   15.3275    9.8324   23.4399 C   0  0  0  0  0  0  0  0  0  0  0  0
   15.9659    8.8378   27.9150 H   0  0  0  0  0  0  0  0  0  0  0  0
   12.4116    8.3068   23.2847 H   0  0  0  0  0  0  0  0  0  0  0  0
   13.8163   10.5053   22.0053 H   0  0  0  0  0  0  0  0  0  0  0  0
   14.1916    8.7521   21.9050 H   0  0  0  0  0  0  0  0  0  0  0  0
   15.6015   10.9113   23.4788 H   0  0  0  0  0  0  0  0  0  0  0  0
   16.4968    9.0471   22.9100 C   0  0  0  0  0  0  0  0  0  0  0  0
   17.4530    8.7298   23.6692 O   0  0  0  0  0  0  0  0  0  0  0  0
   16.5106    8.6483   21.5772 O   0  0  0  0  0  0  0  0  0  0  0  0
   17.2846    8.1122   21.2034 H   0  0  0  0  0  0  0  0  0  0  0  0
   11.7255    8.1821   26.3326 C   0  0  0  0  0  0  0  0  0  0  0  0
   11.0865    8.4849   27.5459 C   0  0  0  0  0  0  0  0  0  0  0  0
    9.7534    8.1162   27.7516 C   0  0  0  0  0  0  0  0  0  0  0  0
    9.0542    7.4314   26.7540 C   0  0  0  0  0  0  0  0  0  0  0  0
    9.6898    7.1070   25.5525 C   0  0  0  0  0  0  0  0  0  0  0  0
   11.0227    7.4745   25.3428 C   0  0  0  0  0  0  0  0  0  0  0  0
   11.6164    9.0165   28.3269 H   0  0  0  0  0  0  0  0  0  0  0  0
    9.2627    8.3605   28.6848 H   0  0  0  0  0  0  0  0  0  0  0  0
    8.0230    7.1450   26.9153 H   0  0  0  0  0  0  0  0  0  0  0  0
    9.1524    6.5627   24.7868 H   0  0  0  0  0  0  0  0  0  0  0  0
   11.5105    7.1832   24.4219 H   0  0  0  0  0  0  0  0  0  0  0  0
   11.8916   10.3872   23.7086 C   0  0  0  0  0  0  0  0  0  0  0  0
   12.3818   11.3188   24.0660 H   0  0  0  0  0  0  0  0  0  0  0  0
   11.4389   10.5791   22.7128 H   0  0  0  0  0  0  0  0  0  0  0  0
   11.0739   10.1251   24.4102 H   0  0  0  0  0  0  0  0  0  0  0  0
  1  2  2  0
  2  3  1  0
  3  4  2  0
  4  5  1  0
  5  6  2  0
  6  7  1  0
  7  8  1  0
  8  9  1  0
  6  1  1  0
  9  5  1  0
  3 10  1  0
  7 11  1  0
  8 12  1  0
  8 13  1  0
  9 14  1  0
 15 16  2  0
 15 17  1  0
 17 18  1  0
  9 15  1  0
 19 20  2  0
 20 21  1  0
 21 22  2  0
 22 23  1  0
 23 24  2  0
 24 19  1  0
 20 25  1  0
 21 26  1  0
 22 27  1  0
 23 28  1  0
 24 29  1  0
  1 19  1  0
 30 31  1  0
 30 32  1  0
 30 33  1  0
  7 30  1  0
M  END
$$$$

