
     RDKit          3D

 41 43  0  0  0  0  0  0  0  0999 V2000
   11.5220    8.2100   25.9860 C   0  0  0  0  0  0  0  0  0  0  0  0
   11.1160    7.8620   27.1980 N   0  0  0  0  0  0  0  0  0  0  0  0
   10.7650    8.2470   25.0170 O   0  0  0  0  0  0  0  0  0  0  0  0
    9.7140    7.5550   27.4490 C   0  0  1  0  0  0  0  0  0  0  0  0
    9.3780    6.1120   27.0670 C   0  0  0  0  0  0  0  0  0  0  0  0
    9.3530    7.8290   28.8970 C   0  0  0  0  0  0  0  0  0  0  0  0
    8.0620    8.0330   29.1330 N   0  0  0  0  0  0  0  0  0  0  0  0
   10.2290    7.8700   29.7690 O   0  0  0  0  0  0  0  0  0  0  0  0
    7.5750    8.3350   30.4620 C   0  0  0  0  0  0  0  0  0  0  0  0
    6.9030    9.6940   30.4160 C   0  0  0  0  0  0  0  0  0  0  0  0
    6.1680   10.0220   31.3650 O   0  0  0  0  0  0  0  0  0  0  0  0
    7.0900   10.4250   29.4160 O   0  0  0  0  0  0  0  0  0  0  0  0
   12.9542    8.5093   25.7700 C   0  0  0  0  0  0  0  0  0  0  0  0
   13.3531    9.8147   25.4122 C   0  0  0  0  0  0  0  0  0  0  0  0
   14.7092   10.0992   25.1643 C   0  0  0  0  0  0  0  0  0  0  0  0
   15.6533    9.1222   25.2750 N   0  0  0  0  0  0  0  0  0  0  0  0
   15.2867    7.8643   25.6245 C   0  0  0  0  0  0  0  0  0  0  0  0
   13.9692    7.5415   25.8807 C   0  0  0  0  0  0  0  0  0  0  0  0
   13.9727    6.1556   26.3147 C   0  0  0  0  0  0  0  0  0  0  0  0
   12.9833    5.5011   26.7366 O   0  0  0  0  0  0  0  0  0  0  0  0
   15.3010    5.6436   26.2753 N   0  0  0  0  0  0  0  0  0  0  0  0
   15.6974    4.2923   26.6491 C   0  0  0  0  0  0  0  0  0  0  0  0
   16.2096    6.7034   25.8371 C   0  0  0  0  0  0  0  0  0  0  0  0
   12.6209   10.6059   25.3066 H   0  0  0  0  0  0  0  0  0  0  0  0
   15.0066   11.1006   24.8834 H   0  0  0  0  0  0  0  0  0  0  0  0
   15.4187    4.1007   27.7064 H   0  0  0  0  0  0  0  0  0  0  0  0
   15.1831    3.5587   25.9939 H   0  0  0  0  0  0  0  0  0  0  0  0
   16.7953    4.1688   26.5372 H   0  0  0  0  0  0  0  0  0  0  0  0
   16.9500    6.9327   26.6326 H   0  0  0  0  0  0  0  0  0  0  0  0
   16.7089    6.4191   24.8868 H   0  0  0  0  0  0  0  0  0  0  0  0
   10.0954    4.9632   27.7259 C   0  0  0  0  0  0  0  0  0  0  0  0
   10.8523    5.1191   28.9015 C   0  0  0  0  0  0  0  0  0  0  0  0
   11.4207    4.0048   29.5274 C   0  0  0  0  0  0  0  0  0  0  0  0
   11.1997    2.7241   29.0158 C   0  0  0  0  0  0  0  0  0  0  0  0
   10.3890    2.5538   27.8918 C   0  0  0  0  0  0  0  0  0  0  0  0
    9.8211    3.6667   27.2637 C   0  0  0  0  0  0  0  0  0  0  0  0
   10.9803    6.0852   29.3638 H   0  0  0  0  0  0  0  0  0  0  0  0
   12.0157    4.1327   30.4225 H   0  0  0  0  0  0  0  0  0  0  0  0
   11.6366    1.8627   29.5041 H   0  0  0  0  0  0  0  0  0  0  0  0
   10.1953    1.5597   27.5100 H   0  0  0  0  0  0  0  0  0  0  0  0
    9.1812    3.5185   26.4020 H   0  0  0  0  0  0  0  0  0  0  0  0
  1  2  1  0
  3  1  2  0
  2  4  1  0
  4  5  1  1
  4  6  1  0
  6  7  1  0
  6  8  2  0
  7  9  1  0
 10  9  1  0
 10 11  1  0
 12 10  2  0
 13 14  2  0
 14 15  1  0
 15 16  2  0
 16 17  1  0
 17 18  2  0
 18 19  1  0
 19 20  2  0
 19 21  1  0
 21 22  1  0
 21 23  1  0
 18 13  1  0
 23 17  1  0
 14 24  1  0
 15 25  1  0
 22 26  1  0
 22 27  1  0
 22 28  1  0
 23 29  1  0
 23 30  1  0
  1 13  1  0
 31 32  2  0
 32 33  1  0
 33 34  2  0
 34 35  1  0
 35 36  2  0
 36 31  1  0
 32 37  1  0
 33 38  1  0
 34 39  1  0
 35 40  1  0
 36 41  1  0
  5 31  1  0
M  END
$$$$

