
     RDKit          3D

 35 37  0  0  0  0  0  0  0  0999 V2000
   13.5190   -8.5627   -0.2987 C   0  0  0  0  0  0  0  0  0  0  0  0
   13.2522   -9.4867    0.7217 C   0  0  0  0  0  0  0  0  0  0  0  0
   12.9436  -10.8131    0.4027 C   0  0  0  0  0  0  0  0  0  0  0  0
   12.8969  -11.2193   -0.9345 C   0  0  0  0  0  0  0  0  0  0  0  0
   13.1575  -10.2991   -1.9547 C   0  0  0  0  0  0  0  0  0  0  0  0
   13.4664   -8.9719   -1.6389 C   0  0  0  0  0  0  0  0  0  0  0  0
   13.2832   -9.1805    1.7600 H   0  0  0  0  0  0  0  0  0  0  0  0
   12.7395  -11.5255    1.1915 H   0  0  0  0  0  0  0  0  0  0  0  0
   12.6575  -12.2458   -1.1801 H   0  0  0  0  0  0  0  0  0  0  0  0
   13.1187  -10.6137   -2.9895 H   0  0  0  0  0  0  0  0  0  0  0  0
   13.6630   -8.2647   -2.4353 H   0  0  0  0  0  0  0  0  0  0  0  0
   13.8376   -7.1584    0.0206 C   0  0  0  0  0  0  0  0  0  0  0  0
   14.0918   -6.2872   -0.9975 N   0  0  0  0  0  0  0  0  0  0  0  0
   14.3986   -4.9802   -0.7575 C   0  0  0  0  0  0  0  0  0  0  0  0
   14.4683   -4.5162    0.5202 N   0  0  0  0  0  0  0  0  0  0  0  0
   14.2268   -5.3634    1.5516 C   0  0  0  0  0  0  0  0  0  0  0  0
   13.9182   -6.6807    1.3397 C   0  0  0  0  0  0  0  0  0  0  0  0
   13.7979   -7.4214    2.6317 C   0  0  0  0  0  0  0  0  0  0  0  0
   14.9627   -8.4015    2.8154 C   0  0  0  0  0  0  0  0  0  0  0  0
   13.8330   -6.2949    3.6950 C   0  0  0  0  0  0  0  0  0  0  0  0
   14.3172   -5.0126    2.9882 C   0  0  0  0  0  0  0  0  0  0  0  0
   14.5923   -4.3116   -1.5848 H   0  0  0  0  0  0  0  0  0  0  0  0
   12.8337   -7.9674    2.6932 H   0  0  0  0  0  0  0  0  0  0  0  0
   15.9377   -7.8720    2.7470 H   0  0  0  0  0  0  0  0  0  0  0  0
   14.9288   -9.1941    2.0394 H   0  0  0  0  0  0  0  0  0  0  0  0
   14.8894   -8.8923    3.8090 H   0  0  0  0  0  0  0  0  0  0  0  0
   12.8014   -6.1275    4.0768 H   0  0  0  0  0  0  0  0  0  0  0  0
   14.4753   -6.5490    4.5676 H   0  0  0  0  0  0  0  0  0  0  0  0
   13.6536   -4.1513    3.2327 H   0  0  0  0  0  0  0  0  0  0  0  0
   15.6587   -4.5343    3.3912 N   0  0  0  0  0  0  0  0  0  0  0  0
   16.7814   -5.4459    3.1716 C   0  0  0  0  0  0  0  0  0  0  0  0
   15.6340   -4.2856    4.4083 H   0  0  0  0  0  0  0  0  0  0  0  0
   16.8057   -6.2297    3.9570 H   0  0  0  0  0  0  0  0  0  0  0  0
   16.7606   -5.8792    2.1505 H   0  0  0  0  0  0  0  0  0  0  0  0
   17.7262   -4.8703    3.2583 H   0  0  0  0  0  0  0  0  0  0  0  0
  1  2  2  0
  2  3  1  0
  3  4  2  0
  4  5  1  0
  5  6  2  0
  6  1  1  0
  2  7  1  0
  3  8  1  0
  4  9  1  0
  5 10  1  0
  6 11  1  0
 12 13  2  0
 13 14  1  0
 14 15  2  0
 15 16  1  0
 16 17  2  0
 17 18  1  0
 18 19  1  0
 18 20  1  0
 20 21  1  0
 17 12  1  0
 21 16  1  0
 14 22  1  0
 18 23  1  0
 19 24  1  0
 19 25  1  0
 19 26  1  0
 20 27  1  0
 20 28  1  0
 21 29  1  0
  1 12  1  0
 30 31  1  0
 30 32  1  0
 31 33  1  0
 31 34  1  0
 31 35  1  0
 21 30  1  0
M  END
$$$$

