
     RDKit          3D

 41 44  0  0  0  0  0  0  0  0999 V2000
   14.7683   -9.1792    7.6207 C   0  0  0  0  0  0  0  0  0  0  0  0
   15.1961   -8.6313    6.3977 C   0  0  0  0  0  0  0  0  0  0  0  0
   14.2969   -8.4989    5.3350 C   0  0  0  0  0  0  0  0  0  0  0  0
   12.9690   -8.9082    5.4861 C   0  0  0  0  0  0  0  0  0  0  0  0
   12.5379   -9.4499    6.7006 C   0  0  0  0  0  0  0  0  0  0  0  0
   13.4340   -9.5840    7.7662 C   0  0  0  0  0  0  0  0  0  0  0  0
   16.2210   -8.3058    6.2695 H   0  0  0  0  0  0  0  0  0  0  0  0
   14.6284   -8.0786    4.3944 H   0  0  0  0  0  0  0  0  0  0  0  0
   12.2741   -8.8046    4.6628 H   0  0  0  0  0  0  0  0  0  0  0  0
   11.5089   -9.7645    6.8169 H   0  0  0  0  0  0  0  0  0  0  0  0
   13.0883  -10.0011    8.7041 H   0  0  0  0  0  0  0  0  0  0  0  0
   15.7070   -9.3140    8.7840 C   0  0  1  0  0  0  0  0  0  0  0  0
   16.8096  -10.3349    8.6526 C   0  0  0  0  0  0  0  0  0  0  0  0
   17.9129  -10.2334    9.5128 C   0  0  0  0  0  0  0  0  0  0  0  0
   18.9530  -11.1652    9.4425 C   0  0  0  0  0  0  0  0  0  0  0  0
   18.8975  -12.2075    8.5140 C   0  0  0  0  0  0  0  0  0  0  0  0
   17.8014  -12.3194    7.6550 C   0  0  0  0  0  0  0  0  0  0  0  0
   16.7588  -11.3898    7.7223 C   0  0  0  0  0  0  0  0  0  0  0  0
   17.9664   -9.4321   10.2398 H   0  0  0  0  0  0  0  0  0  0  0  0
   19.8015  -11.0797   10.1090 H   0  0  0  0  0  0  0  0  0  0  0  0
   19.7031  -12.9283    8.4605 H   0  0  0  0  0  0  0  0  0  0  0  0
   17.7595  -13.1271    6.9357 H   0  0  0  0  0  0  0  0  0  0  0  0
   15.9259  -11.4966    7.0431 H   0  0  0  0  0  0  0  0  0  0  0  0
   15.9914   -7.7961    9.2353 C   0  0  0  0  0  0  0  0  0  0  0  0
   15.4710   -7.2970   10.4667 C   0  0  0  0  0  0  0  0  0  0  0  0
   14.5565   -6.2102   10.4418 C   0  0  0  0  0  0  0  0  0  0  0  0
   14.4044   -5.4740    9.3037 N   0  0  0  0  0  0  0  0  0  0  0  0
   15.1807   -5.7510    8.2198 C   0  0  0  0  0  0  0  0  0  0  0  0
   16.1236   -6.7615    8.3217 C   0  0  0  0  0  0  0  0  0  0  0  0
   17.4053   -6.0793    8.0193 C   0  0  0  0  0  0  0  0  0  0  0  0
   18.5256   -6.4066    8.4952 O   0  0  0  0  0  0  0  0  0  0  0  0
   17.1495   -4.8382    7.3597 N   0  0  0  0  0  0  0  0  0  0  0  0
   18.0920   -3.7186    7.3205 C   0  0  0  0  0  0  0  0  0  0  0  0
   15.6855   -4.6814    7.2939 C   0  0  0  0  0  0  0  0  0  0  0  0
   15.5262   -7.8895   11.3813 H   0  0  0  0  0  0  0  0  0  0  0  0
   13.9904   -5.9590   11.3316 H   0  0  0  0  0  0  0  0  0  0  0  0
   19.0420   -3.9820    7.8211 H   0  0  0  0  0  0  0  0  0  0  0  0
   17.6378   -2.8399    7.8381 H   0  0  0  0  0  0  0  0  0  0  0  0
   18.2969   -3.4391    6.2716 H   0  0  0  0  0  0  0  0  0  0  0  0
   15.3448   -4.9186    6.2545 H   0  0  0  0  0  0  0  0  0  0  0  0
   15.3423   -3.6619    7.6268 H   0  0  0  0  0  0  0  0  0  0  0  0
  1  2  2  0
  2  3  1  0
  3  4  2  0
  4  5  1  0
  5  6  2  0
  6  1  1  0
  2  7  1  0
  3  8  1  0
  4  9  1  0
  5 10  1  0
  6 11  1  0
 12  1  1  6
 13 14  2  0
 14 15  1  0
 15 16  2  0
 16 17  1  0
 17 18  2  0
 18 13  1  0
 14 19  1  0
 15 20  1  0
 16 21  1  0
 17 22  1  0
 18 23  1  0
 12 13  1  0
 24 25  2  0
 25 26  1  0
 26 27  2  0
 27 28  1  0
 28 29  2  0
 29 30  1  0
 30 31  2  0
 30 32  1  0
 32 33  1  0
 32 34  1  0
 29 24  1  0
 34 28  1  0
 25 35  1  0
 26 36  1  0
 33 37  1  0
 33 38  1  0
 33 39  1  0
 34 40  1  0
 34 41  1  0
 12 24  1  0
M  END
$$$$

