
     RDKit          3D

 48 51  0  0  0  0  0  0  0  0999 V2000
    3.0570   17.1890   48.1100 C   0  0  0  0  0  0  0  0  0  0  0  0
    2.6890   17.5150   49.5610 C   0  0  1  0  0  0  0  0  0  0  0  0
    2.2460   16.0630   47.5050 C   0  0  0  0  0  0  0  0  0  0  0  0
    2.5040   14.7600   48.2240 C   0  0  2  0  0  0  0  0  0  0  0  0
    2.1650   14.9410   49.7410 C   0  0  2  0  0  0  0  0  0  0  0  0
    2.7730   16.2430   50.3890 C   0  0  2  0  0  0  0  0  0  0  0  0
    2.3860   16.5280   51.8540 C   0  0  0  0  0  0  0  0  0  0  0  0
    2.8020   17.8940   52.3250 C   0  0  0  0  0  0  0  0  0  0  0  0
    3.4680   18.7640   51.5470 C   0  0  0  0  0  0  0  0  0  0  0  0
    3.9420   20.1290   52.0000 C   0  0  2  0  0  0  0  0  0  0  0  0
    3.7660   18.4550   50.1050 C   0  0  2  0  0  0  0  0  0  0  0  0
    4.0450   19.6940   49.2510 C   0  0  0  0  0  0  0  0  0  0  0  0
    1.3000   18.1950   49.6370 C   0  0  0  0  0  0  0  0  0  0  0  0
    5.1570   20.5810   49.8020 C   0  0  2  0  0  0  0  0  0  0  0  0
    6.3570   20.3090   49.1050 O   0  0  0  0  0  0  0  0  0  0  0  0
    5.3380   20.4280   51.3360 C   0  0  1  0  0  0  0  0  0  0  0  0
    5.7540   21.7310   52.0950 C   0  0  1  0  0  0  0  0  0  0  0  0
    4.2340   20.3200   53.4920 C   0  0  0  0  0  0  0  0  0  0  0  0
    5.3350   21.3960   53.5450 C   0  0  2  0  0  0  0  0  0  0  0  0
    2.6347   13.7070   50.5312 C   0  0  0  0  0  0  0  0  0  0  0  0
    2.2716   12.7747   50.0475 H   0  0  0  0  0  0  0  0  0  0  0  0
    2.2375   13.7335   51.5682 H   0  0  0  0  0  0  0  0  0  0  0  0
    3.7443   13.6739   50.5794 H   0  0  0  0  0  0  0  0  0  0  0  0
    2.8263   21.1664   51.6648 C   0  0  0  0  0  0  0  0  0  0  0  0
    2.2247   20.8961   50.7758 H   0  0  0  0  0  0  0  0  0  0  0  0
    3.2421   22.1803   51.4856 H   0  0  0  0  0  0  0  0  0  0  0  0
    2.1158   21.2409   52.5169 H   0  0  0  0  0  0  0  0  0  0  0  0
    7.0919   22.1133   51.9871 O   0  0  0  0  0  0  0  0  0  0  0  0
    7.1726   22.4872   51.0734 H   0  0  0  0  0  0  0  0  0  0  0  0
    3.9262   14.2576   47.9239 C   0  0  0  0  0  0  0  0  0  0  0  0
    4.6748   14.7880   48.5506 H   0  0  0  0  0  0  0  0  0  0  0  0
    4.1711   14.4221   46.8529 H   0  0  0  0  0  0  0  0  0  0  0  0
    3.9952   13.1667   48.1126 H   0  0  0  0  0  0  0  0  0  0  0  0
    0.6190   14.9719   49.8521 C   0  0  0  0  0  0  0  0  0  0  0  0
    0.1806   15.8063   49.2686 H   0  0  0  0  0  0  0  0  0  0  0  0
    0.2901   15.0807   50.9077 H   0  0  0  0  0  0  0  0  0  0  0  0
    0.1817   14.0290   49.4565 H   0  0  0  0  0  0  0  0  0  0  0  0
    6.3926   19.3065   51.6437 C   0  0  0  0  0  0  0  0  0  0  0  0
    7.4214   19.6706   51.4383 H   0  0  0  0  0  0  0  0  0  0  0  0
    6.3643   18.9829   52.7049 H   0  0  0  0  0  0  0  0  0  0  0  0
    6.2375   18.4040   51.0187 H   0  0  0  0  0  0  0  0  0  0  0  0
    4.8699   22.6513   54.2844 C   0  0  0  0  0  0  0  0  0  0  0  0
    5.5787   22.7785   55.5980 C   0  0  0  0  0  0  0  0  0  0  0  0
    4.9804   22.4865   56.6668 O   0  0  0  0  0  0  0  0  0  0  0  0
    6.9082   23.1871   55.6467 O   0  0  0  0  0  0  0  0  0  0  0  0
    5.1030   23.5491   53.6726 H   0  0  0  0  0  0  0  0  0  0  0  0
    3.7693   22.6229   54.4424 H   0  0  0  0  0  0  0  0  0  0  0  0
    7.4170   23.4129   54.8003 H   0  0  0  0  0  0  0  0  0  0  0  0
  1  2  1  0
  3  1  1  0
  3  4  1  0
  4  5  1  0
  5  6  1  0
  6  7  1  1
  7  8  1  0
  9 10  1  0
  9  8  2  0
 11 12  1  6
 11  9  1  0
  2 13  1  6
  2 11  1  0
  2  6  1  0
 12 14  1  0
 14 15  1  6
 14 16  1  0
 16 10  1  0
 16 17  1  0
 10 18  1  0
 18 19  1  0
 17 19  1  0
 20 21  1  0
 20 22  1  0
 20 23  1  0
  5 20  1  1
 24 25  1  0
 24 26  1  0
 24 27  1  0
 10 24  1  6
 28 29  1  0
 17 28  1  1
 30 31  1  0
 30 32  1  0
 30 33  1  0
  4 30  1  1
 34 35  1  0
 34 36  1  0
 34 37  1  0
  5 34  1  0
 38 39  1  0
 38 40  1  0
 38 41  1  0
 16 38  1  6
 42 43  1  0
 43 44  2  0
 43 45  1  0
 42 46  1  0
 42 47  1  0
 45 48  1  0
 19 42  1  6
M  END
$$$$

