
     RDKit          3D

 27 28  0  0  0  0  0  0  0  0999 V2000
   17.1480   -2.6690   36.2790 O   0  0  0  0  0  0  0  0  0  0  0  0
   17.1550   -1.2410   36.3640 C   0  0  1  0  0  0  0  0  0  0  0  0
   15.8730   -3.2350   36.6450 C   0  0  1  0  0  0  0  0  0  0  0  0
   16.0900   -0.6370   35.4390 C   0  0  1  0  0  0  0  0  0  0  0  0
   14.7130   -1.2450   35.7220 C   0  0  1  0  0  0  0  0  0  0  0  0
   13.7740   -0.7820   34.7560 O   0  0  0  0  0  0  0  0  0  0  0  0
   14.8010   -2.7670   35.6700 C   0  0  1  0  0  0  0  0  0  0  0  0
   15.1410   -3.1810   34.3550 O   0  0  0  0  0  0  0  0  0  0  0  0
   17.0982   -0.7658   37.8240 C   0  0  0  0  0  0  0  0  0  0  0  0
   16.0597   -0.8066   38.2150 H   0  0  0  0  0  0  0  0  0  0  0  0
   17.7446   -1.4154   38.4503 H   0  0  0  0  0  0  0  0  0  0  0  0
   17.4768    0.2744   37.9027 H   0  0  0  0  0  0  0  0  0  0  0  0
   15.9519   -4.7281   36.7073 C   0  0  0  0  0  0  0  0  0  0  0  0
   15.9911   -5.4079   35.6478 O   0  0  0  0  0  0  0  0  0  0  0  0
   16.0107   -5.3600   37.9441 O   0  0  0  0  0  0  0  0  0  0  0  0
   15.2688   -5.9801   38.2463 H   0  0  0  0  0  0  0  0  0  0  0  0
   16.1107    0.8703   35.4058 C   0  0  0  0  0  0  0  0  0  0  0  0
   16.6168    1.5146   34.2677 C   0  0  0  0  0  0  0  0  0  0  0  0
   16.6709    2.9109   34.2129 C   0  0  0  0  0  0  0  0  0  0  0  0
   16.2250    3.6724   35.2965 C   0  0  0  0  0  0  0  0  0  0  0  0
   15.7255    3.0388   36.4376 C   0  0  0  0  0  0  0  0  0  0  0  0
   15.6694    1.6430   36.4962 C   0  0  0  0  0  0  0  0  0  0  0  0
   16.9695    0.9349   33.4234 H   0  0  0  0  0  0  0  0  0  0  0  0
   17.0605    3.4025   33.3308 H   0  0  0  0  0  0  0  0  0  0  0  0
   16.2684    4.7530   35.2529 H   0  0  0  0  0  0  0  0  0  0  0  0
   15.3834    3.6294   37.2776 H   0  0  0  0  0  0  0  0  0  0  0  0
   15.2839    1.1674   37.3890 H   0  0  0  0  0  0  0  0  0  0  0  0
  1  2  1  0
  1  3  1  0
  4  5  1  0
  4  2  1  0
  5  6  1  6
  7  8  1  6
  7  5  1  0
  7  3  1  0
  9 10  1  0
  9 11  1  0
  9 12  1  0
  2  9  1  1
 13 14  2  0
  3 13  1  6
 15 16  1  0
 13 15  1  0
 17 18  2  0
 18 19  1  0
 19 20  2  0
 20 21  1  0
 21 22  2  0
 22 17  1  0
 18 23  1  0
 19 24  1  0
 20 25  1  0
 21 26  1  0
 22 27  1  0
  4 17  1  1
M  END
$$$$

