
     RDKit          3D

 18 18  0  0  0  0  0  0  0  0999 V2000
   22.1420   -1.2760   37.9780 C   0  0  2  0  0  0  0  0  0  0  0  0
   21.3360   -2.5720   38.0240 C   0  0  1  0  0  0  0  0  0  0  0  0
   21.2880   -0.1660   38.2550 O   0  0  0  0  0  0  0  0  0  0  0  0
   20.1530   -2.5140   37.0560 C   0  0  1  0  0  0  0  0  0  0  0  0
   19.3470   -3.6700   37.2350 O   0  0  0  0  0  0  0  0  0  0  0  0
   19.3240   -1.2470   37.3080 C   0  0  2  0  0  0  0  0  0  0  0  0
   18.3090   -1.1080   36.2890 O   0  0  0  0  0  0  0  0  0  0  0  0
   20.2510   -0.0290   37.2680 C   0  0  1  0  0  0  0  0  0  0  0  0
   22.9747   -1.0634   36.7039 C   0  0  0  0  0  0  0  0  0  0  0  0
   22.3847   -1.3065   35.7952 H   0  0  0  0  0  0  0  0  0  0  0  0
   23.8802   -1.7044   36.7303 H   0  0  0  0  0  0  0  0  0  0  0  0
   23.3026   -0.0044   36.6486 H   0  0  0  0  0  0  0  0  0  0  0  0
   22.1440   -3.7025   37.8159 O   0  0  0  0  0  0  0  0  0  0  0  0
   22.0701   -4.2775   38.6219 H   0  0  0  0  0  0  0  0  0  0  0  0
   19.4869    1.2660   37.5237 C   0  0  0  0  0  0  0  0  0  0  0  0
   18.9283    1.2034   38.4822 H   0  0  0  0  0  0  0  0  0  0  0  0
   20.2028    2.1127   37.5785 H   0  0  0  0  0  0  0  0  0  0  0  0
   18.7765    1.4659   36.6946 H   0  0  0  0  0  0  0  0  0  0  0  0
  1  2  1  0
  1  3  1  0
  4  5  1  1
  4  6  1  0
  4  2  1  0
  6  7  1  6
  8  6  1  0
  8  3  1  0
  9 10  1  0
  9 11  1  0
  9 12  1  0
  1  9  1  6
 13 14  1  0
  2 13  1  6
 15 16  1  0
 15 17  1  0
 15 18  1  0
  8 15  1  1
M  END
$$$$

