
     RDKit          3D

 26 27  0  0  0  0  0  0  0  0999 V2000
   19.9371   15.8769   40.6816 C   0  0  0  0  0  0  0  0  0  0  0  0
   19.7579   14.4916   40.5352 O   0  0  0  0  0  0  0  0  0  0  0  0
   20.4446   16.0844   41.6543 H   0  0  0  0  0  0  0  0  0  0  0  0
   19.4920   14.1380   41.4244 H   0  0  0  0  0  0  0  0  0  0  0  0
   18.6093   16.5891   40.6129 C   0  0  0  0  0  0  0  0  0  0  0  0
   18.5087   17.8608   40.0192 C   0  0  0  0  0  0  0  0  0  0  0  0
   17.2799   18.5269   39.9814 C   0  0  0  0  0  0  0  0  0  0  0  0
   16.1449   17.9353   40.5418 C   0  0  0  0  0  0  0  0  0  0  0  0
   16.2374   16.6780   41.1445 C   0  0  0  0  0  0  0  0  0  0  0  0
   17.4641   16.0078   41.1848 C   0  0  0  0  0  0  0  0  0  0  0  0
   19.3816   18.3359   39.5889 H   0  0  0  0  0  0  0  0  0  0  0  0
   17.2083   19.5035   39.5203 H   0  0  0  0  0  0  0  0  0  0  0  0
   15.1947   18.4527   40.5127 H   0  0  0  0  0  0  0  0  0  0  0  0
   15.3586   16.2235   41.5833 H   0  0  0  0  0  0  0  0  0  0  0  0
   17.5198   15.0375   41.6625 H   0  0  0  0  0  0  0  0  0  0  0  0
   20.8933   16.3076   39.5827 C   0  0  0  0  0  0  0  0  0  0  0  0
   20.6075   16.0150   38.2352 C   0  0  0  0  0  0  0  0  0  0  0  0
   21.4768   16.4292   37.2218 C   0  0  0  0  0  0  0  0  0  0  0  0
   22.6357   17.1410   37.5404 C   0  0  0  0  0  0  0  0  0  0  0  0
   22.9267   17.4421   38.8732 C   0  0  0  0  0  0  0  0  0  0  0  0
   22.0608   17.0307   39.8912 C   0  0  0  0  0  0  0  0  0  0  0  0
   19.7081   15.4723   37.9719 H   0  0  0  0  0  0  0  0  0  0  0  0
   21.2501   16.2006   36.1884 H   0  0  0  0  0  0  0  0  0  0  0  0
   23.3070   17.4617   36.7543 H   0  0  0  0  0  0  0  0  0  0  0  0
   23.8230   17.9973   39.1179 H   0  0  0  0  0  0  0  0  0  0  0  0
   22.2999   17.2806   40.9172 H   0  0  0  0  0  0  0  0  0  0  0  0
  1  2  1  0
  1  3  1  0
  2  4  1  0
  5  6  2  0
  6  7  1  0
  7  8  2  0
  8  9  1  0
  9 10  2  0
 10  5  1  0
  6 11  1  0
  7 12  1  0
  8 13  1  0
  9 14  1  0
 10 15  1  0
  1  5  1  0
 16 17  2  0
 17 18  1  0
 18 19  2  0
 19 20  1  0
 20 21  2  0
 21 16  1  0
 17 22  1  0
 18 23  1  0
 19 24  1  0
 20 25  1  0
 21 26  1  0
  1 16  1  0
M  END
$$$$

