
     RDKit          3D

 23 24  0  0  0  0  0  0  0  0999 V2000
  -15.5240  -27.0276  -27.3539 C   0  0  0  0  0  0  0  0  0  0  0  0
  -15.1330  -28.1794  -28.0522 C   0  0  0  0  0  0  0  0  0  0  0  0
  -13.7766  -28.4990  -28.1729 C   0  0  0  0  0  0  0  0  0  0  0  0
  -12.8081  -27.6711  -27.5968 C   0  0  0  0  0  0  0  0  0  0  0  0
  -13.1947  -26.5224  -26.8993 C   0  0  0  0  0  0  0  0  0  0  0  0
  -14.5502  -26.2000  -26.7773 C   0  0  0  0  0  0  0  0  0  0  0  0
  -15.8767  -28.8271  -28.5000 H   0  0  0  0  0  0  0  0  0  0  0  0
  -13.4764  -29.3882  -28.7119 H   0  0  0  0  0  0  0  0  0  0  0  0
  -11.7588  -27.9197  -27.6903 H   0  0  0  0  0  0  0  0  0  0  0  0
  -12.4444  -25.8827  -26.4529 H   0  0  0  0  0  0  0  0  0  0  0  0
  -14.8411  -25.3097  -26.2333 H   0  0  0  0  0  0  0  0  0  0  0  0
  -16.9740  -26.6870  -27.2130 C   0  0  0  0  0  0  0  0  0  0  0  0
  -17.4271  -25.8273  -28.3496 C   0  0  0  0  0  0  0  0  0  0  0  0
  -17.1474  -26.2032  -29.6712 C   0  0  0  0  0  0  0  0  0  0  0  0
  -17.5520  -25.3868  -30.7324 C   0  0  0  0  0  0  0  0  0  0  0  0
  -18.2329  -24.1925  -30.4771 C   0  0  0  0  0  0  0  0  0  0  0  0
  -18.5092  -23.8124  -29.1600 C   0  0  0  0  0  0  0  0  0  0  0  0
  -18.1059  -24.6267  -28.0967 C   0  0  0  0  0  0  0  0  0  0  0  0
  -16.6170  -27.1246  -29.8779 H   0  0  0  0  0  0  0  0  0  0  0  0
  -17.3364  -25.6789  -31.7520 H   0  0  0  0  0  0  0  0  0  0  0  0
  -18.5449  -23.5612  -31.2990 H   0  0  0  0  0  0  0  0  0  0  0  0
  -19.0340  -22.8866  -28.9632 H   0  0  0  0  0  0  0  0  0  0  0  0
  -18.3205  -24.3227  -27.0796 H   0  0  0  0  0  0  0  0  0  0  0  0
  1  2  2  0
  2  3  1  0
  3  4  2  0
  4  5  1  0
  5  6  2  0
  6  1  1  0
  2  7  1  0
  3  8  1  0
  4  9  1  0
  5 10  1  0
  6 11  1  0
 12  1  1  0
 13 14  2  0
 14 15  1  0
 15 16  2  0
 16 17  1  0
 17 18  2  0
 18 13  1  0
 14 19  1  0
 15 20  1  0
 16 21  1  0
 17 22  1  0
 18 23  1  0
 12 13  1  0
M  END
$$$$

