
     RDKit          3D

 15 15  0  0  0  0  0  0  0  0999 V2000
  -16.9042  -26.7415  -27.2847 C   0  0  0  0  0  0  0  0  0  0  0  0
  -15.5703  -26.5871  -27.6882 C   0  0  0  0  0  0  0  0  0  0  0  0
  -14.6887  -25.8235  -26.9160 C   0  0  0  0  0  0  0  0  0  0  0  0
  -15.1352  -25.2162  -25.7381 C   0  0  0  0  0  0  0  0  0  0  0  0
  -16.4635  -25.3732  -25.3301 C   0  0  0  0  0  0  0  0  0  0  0  0
  -17.3474  -26.1362  -26.1002 C   0  0  0  0  0  0  0  0  0  0  0  0
  -15.2154  -27.0573  -28.5970 H   0  0  0  0  0  0  0  0  0  0  0  0
  -13.6597  -25.7038  -27.2295 H   0  0  0  0  0  0  0  0  0  0  0  0
  -14.4520  -24.6261  -25.1411 H   0  0  0  0  0  0  0  0  0  0  0  0
  -16.8075  -24.9051  -24.4169 H   0  0  0  0  0  0  0  0  0  0  0  0
  -18.3736  -26.2560  -25.7751 H   0  0  0  0  0  0  0  0  0  0  0  0
  -17.8393  -27.5961  -28.0886 C   0  0  0  0  0  0  0  0  0  0  0  0
  -17.7995  -28.6401  -27.7136 H   0  0  0  0  0  0  0  0  0  0  0  0
  -18.8819  -27.2214  -28.0069 H   0  0  0  0  0  0  0  0  0  0  0  0
  -17.5553  -27.5860  -29.1626 H   0  0  0  0  0  0  0  0  0  0  0  0
  1  2  2  0
  2  3  1  0
  3  4  2  0
  4  5  1  0
  5  6  2  0
  6  1  1  0
  2  7  1  0
  3  8  1  0
  4  9  1  0
  5 10  1  0
  6 11  1  0
 12 13  1  0
 12 14  1  0
 12 15  1  0
  1 12  1  0
M  END
$$$$

